networks/opendss/CKT_1581_18950.dss
! OpenDSS script generated from multiconductor network
Clear

New Circuit.mc_network basekv=12.0 pu=1.000000 angle=0.00 frequency=60.0 phases=3 Mvasc3=143993 Mvasc1=47997.6
~ bus1=-8888882144961.1.2.3

! Line codes
New LineCode.2_CLP_2PH_12KV_2 nphases=2 units=km Rmatrix=[ 0.020475 | 0 0.020475 ] Xmatrix=[ 0.004316 | 0 0.004316 ] Cmatrix=[ 0 | 0 0 ]
New LineCode.__3PH_12KV_3 nphases=3 units=km Rmatrix=[ 1e-05 | 0 1e-05 | 0 0 1e-05 ] Xmatrix=[ 1e-05 | 0 1e-05 | 0 0 1e-05 ] Cmatrix=[ 0 | 0 0 | 0 0 0 ]
New LineCode.8_CU_2PH_12KV_2 nphases=2 units=km Rmatrix=[ 0.144173 | 0 0.144173 ] Xmatrix=[ 0.051103 | 0 0.051103 ] Cmatrix=[ 0 | 0 0 ]
New LineCode.4_CU_2PH_12KV_2 nphases=2 units=km Rmatrix=[ 0.232499 | 0 0.232499 ] Xmatrix=[ 0.126713 | 0 0.126713 ] Cmatrix=[ 0 | 0 0 ]
New LineCode.4_CU_3PH_12KV_3 nphases=3 units=km Rmatrix=[ 0.009038 | 0 0.009038 | 0 0 0.009038 ] Xmatrix=[ 0.004926 | 0 0.004926 | 0 0 0.004926 ] Cmatrix=[ 0 | 0 0 | 0 0 0 ]
New LineCode.__2PH_12KV_2 nphases=2 units=km Rmatrix=[ 1e-05 | 0 1e-05 ] Xmatrix=[ 1e-05 | 0 1e-05 ] Cmatrix=[ 0 | 0 0 ]
New LineCode.1/0_ATW_2PH_12KV_2 nphases=2 units=km Rmatrix=[ 1e-05 | 0 1e-05 ] Xmatrix=[ 1e-05 | 0 1e-05 ] Cmatrix=[ 0 | 0 0 ]
New LineCode.6_CU_2PH_12KV_2 nphases=2 units=km Rmatrix=[ 0.009853 | 0 0.009853 ] Xmatrix=[ 0.003492 | 0 0.003492 ] Cmatrix=[ 0 | 0 0 ]
New LineCode.6_CU_3PH_12KV_3 nphases=3 units=km Rmatrix=[ 0.005522 | 0 0.005522 | 0 0 0.005522 ] Xmatrix=[ 0.001957 | 0 0.001957 | 0 0 0.001957 ] Cmatrix=[ 0 | 0 0 | 0 0 0 ]
New LineCode.2_CU_2PH_12KV_2 nphases=2 units=km Rmatrix=[ 1e-05 | 0 1e-05 ] Xmatrix=[ 1e-05 | 0 1e-05 ] Cmatrix=[ 0 | 0 0 ]
New LineCode.336_ATW_3PH_12KV_3 nphases=3 units=km Rmatrix=[ 1e-05 | 0 1e-05 | 0 0 1e-05 ] Xmatrix=[ 1e-05 | 0 1e-05 | 0 0 1e-05 ] Cmatrix=[ 0 | 0 0 | 0 0 0 ]
New LineCode.1/0_ATW_3PH_12KV_3 nphases=3 units=km Rmatrix=[ 1e-05 | 0 1e-05 | 0 0 1e-05 ] Xmatrix=[ 1e-05 | 0 1e-05 | 0 0 1e-05 ] Cmatrix=[ 0 | 0 0 | 0 0 0 ]
New LineCode.750_JCN_3PH_12KV_3 nphases=3 units=km Rmatrix=[ 0.001178 | 0 0.001178 | 0 0 0.001178 ] Xmatrix=[ 0.001446 | 0 0.001446 | 0 0 0.001446 ] Cmatrix=[ 0 | 0 0 | 0 0 0 ]
New LineCode.1/0_AL_2PH_12KV_2 nphases=2 units=km Rmatrix=[ 0.103661 | 0 0.103661 ] Xmatrix=[ 0.031684 | 0 0.031684 ] Cmatrix=[ 0 | 0 0 ]
New LineCode.1/0_CLP_3PH_12KV_3 nphases=3 units=km Rmatrix=[ 0.006936 | 0 0.006936 | 0 0 0.006936 ] Xmatrix=[ 0.00212 | 0 0.00212 | 0 0 0.00212 ] Cmatrix=[ 0 | 0 0 | 0 0 0 ]
New LineCode.2_ACSR_3PH_12KV_2 nphases=2 units=km Rmatrix=[ 0.038817 | 0 0.038817 ] Xmatrix=[ 0.020868 | 0 0.020868 ] Cmatrix=[ 0 | 0 0 ]
New LineCode.2_JCN_3PH_12KV_3 nphases=3 units=km Rmatrix=[ 0.08616 | 0 0.08616 | 0 0 0.08616 ] Xmatrix=[ 0.018161 | 0 0.018161 | 0 0 0.018161 ] Cmatrix=[ 0 | 0 0 | 0 0 0 ]
New LineCode.750_CLP_3PH_12KV_3 nphases=3 units=km Rmatrix=[ 0.024798 | 0 0.024798 | 0 0 0.024798 ] Xmatrix=[ 0.030455 | 0 0.030455 | 0 0 0.030455 ] Cmatrix=[ 0 | 0 0 | 0 0 0 ]
New LineCode.2_CLP_1PH_12KV_1 nphases=1 units=km Rmatrix=[ 0.224849 ] Xmatrix=[ 0.047394 ] Cmatrix=[ 0 ]
New LineCode.1/0_JCN_3PH_12KV_3 nphases=3 units=km Rmatrix=[ 0.056646 | 0 0.056646 | 0 0 0.056646 ] Xmatrix=[ 0.017314 | 0 0.017314 | 0 0 0.017314 ] Cmatrix=[ 0 | 0 0 | 0 0 0 ]
New LineCode.4_ACSR_3PH_12KV_3 nphases=3 units=km Rmatrix=[ 0.012031 | 0 0.012031 | 0 0 0.012031 ] Xmatrix=[ 0.004415 | 0 0.004415 | 0 0 0.004415 ] Cmatrix=[ 0 | 0 0 | 0 0 0 ]
New LineCode.350_AL_2PH_12KV_2 nphases=2 units=km Rmatrix=[ 0.03914 | 0 0.03914 ] Xmatrix=[ 0.029738 | 0 0.029738 ] Cmatrix=[ 0 | 0 0 ]
New LineCode.1/0_JCN_2PH_12KV_2 nphases=2 units=km Rmatrix=[ 0.131383 | 0 0.131383 ] Xmatrix=[ 0.040157 | 0 0.040157 ] Cmatrix=[ 0 | 0 0 ]
New LineCode.350_CLP_3PH_12KV_3 nphases=3 units=km Rmatrix=[ 0.010761 | 0 0.010761 | 0 0 0.010761 ] Xmatrix=[ 0.008176 | 0 0.008176 | 0 0 0.008176 ] Cmatrix=[ 0 | 0 0 | 0 0 0 ]
New LineCode.1/0_AL_3PH_12KV_3 nphases=3 units=km Rmatrix=[ 0.022411 | 0 0.022411 | 0 0 0.022411 ] Xmatrix=[ 0.00685 | 0 0.00685 | 0 0 0.00685 ] Cmatrix=[ 0 | 0 0 | 0 0 0 ]
New LineCode.2_CLP_3PH_12KV_3 nphases=3 units=km Rmatrix=[ 0.074487 | 0 0.074487 | 0 0 0.074487 ] Xmatrix=[ 0.0157 | 0 0.0157 | 0 0 0.0157 ] Cmatrix=[ 0 | 0 0 | 0 0 0 ]
New LineCode.2_CIC_2PH_12KV_2 nphases=2 units=km Rmatrix=[ 0.761779 | 0 0.761779 ] Xmatrix=[ 0.160569 | 0 0.160569 ] Cmatrix=[ 0 | 0 0 ]
New LineCode.1/0_JCN_1PH_12KV_1 nphases=1 units=km Rmatrix=[ 0.013105 ] Xmatrix=[ 0.004005 ] Cmatrix=[ 0 ]
New LineCode.1/0_CLP_2PH_12KV_2 nphases=2 units=km Rmatrix=[ 0.104259 | 0 0.104259 ] Xmatrix=[ 0.031866 | 0 0.031866 ] Cmatrix=[ 0 | 0 0 ]
New LineCode.2_AL_2PH_12KV_2 nphases=2 units=km Rmatrix=[ 0.084479 | 0 0.084479 ] Xmatrix=[ 0.017806 | 0 0.017806 ] Cmatrix=[ 0 | 0 0 ]
New LineCode.350_AL_3PH_12KV_3 nphases=3 units=km Rmatrix=[ 0.007797 | 0 0.007797 | 0 0 0.007797 ] Xmatrix=[ 0.005924 | 0 0.005924 | 0 0 0.005924 ] Cmatrix=[ 0 | 0 0 | 0 0 0 ]
New LineCode.350_CLP_2PH_12KV_2 nphases=2 units=km Rmatrix=[ 0.029508 | 0 0.029508 ] Xmatrix=[ 0.02242 | 0 0.02242 ] Cmatrix=[ 0 | 0 0 ]
New LineCode.2_JCN_1PH_12KV_1 nphases=1 units=km Rmatrix=[ 0.327014 ] Xmatrix=[ 0.068928 ] Cmatrix=[ 0 ]
New LineCode.1/0_ACSR_3PH_12KV_3 nphases=3 units=km Rmatrix=[ 0.046323 | 0 0.046323 | 0 0 0.046323 ] Xmatrix=[ 0.036882 | 0 0.036882 | 0 0 0.036882 ] Cmatrix=[ 0 | 0 0 | 0 0 0 ]
New LineCode.336_ATW_3PH_336_ATW_N_12KV_4 nphases=4 units=km Rmatrix=[ 1e-05 | 0 1e-05 | 0 0 1e-05 | 0 0 0 1e-05 ] Xmatrix=[ 1e-05 | 0 1e-05 | 0 0 1e-05 | 0 0 0 1e-05 ] Cmatrix=[ 0 | 0 0 | 0 0 0 | 0 0 0 0 ]
New LineCode.4_ACSR_2PH_12KV_2 nphases=2 units=km Rmatrix=[ 0.081738 | 0 0.081738 ] Xmatrix=[ 0.029993 | 0 0.029993 ] Cmatrix=[ 0 | 0 0 ]
New LineCode.8_CU_3PH_12KV_3 nphases=3 units=km Rmatrix=[ 0.10056 | 0 0.10056 | 0 0 0.10056 ] Xmatrix=[ 0.035644 | 0 0.035644 | 0 0 0.035644 ] Cmatrix=[ 0 | 0 0 | 0 0 0 ]
New LineCode.1/0_ACSR_2PH_12KV_2 nphases=2 units=km Rmatrix=[ 0.161248 | 0 0.161248 ] Xmatrix=[ 0.128385 | 0 0.128385 ] Cmatrix=[ 0 | 0 0 ]
New LineCode.2_ACSR_2PH_12KV_2 nphases=2 units=km Rmatrix=[ 0.039101 | 0 0.039101 ] Xmatrix=[ 0.021021 | 0 0.021021 ] Cmatrix=[ 0 | 0 0 ]
New LineCode.6_ACSR_2PH_12KV_2 nphases=2 units=km Rmatrix=[ 0.208973 | 0 0.208973 ] Xmatrix=[ 0.076681 | 0 0.076681 ] Cmatrix=[ 0 | 0 0 ]
New LineCode.336_ACSR_3PH_12KV_3 nphases=3 units=km Rmatrix=[ 0.052827 | 0 0.052827 | 0 0 0.052827 ] Xmatrix=[ 0.1183 | 0 0.1183 | 0 0 0.1183 ] Cmatrix=[ 0 | 0 0 | 0 0 0 ]
New LineCode.1/0_ACSR_2PH_1/0_ACSR_N_12KV_3_N nphases=3 units=km Rmatrix=[ 0.105318 | 0 0.105318 | 0 0 0.105318 ] Xmatrix=[ 0.076112 | 0 0.076112 | 0 0 0.076112 ] Cmatrix=[ 0 | 0 0 | 0 0 0 ]
New LineCode.4_ACSR_3PH_4_ACSR_N_12KV_4 nphases=4 units=km Rmatrix=[ 0.012116 | 0 0.012116 | 0 0 0.012116 | 0 0 0 0.012116 ] Xmatrix=[ 0.004075 | 0 0.004075 | 0 0 0.004075 | 0 0 0 0.004075 ] Cmatrix=[ 0 | 0 0 | 0 0 0 | 0 0 0 0 ]
New LineCode.336_ACSR_2PH_12KV_2 nphases=2 units=km Rmatrix=[ 0.001481 | 0 0.001481 ] Xmatrix=[ 0.003316 | 0 0.003316 ] Cmatrix=[ 0 | 0 0 ]
New LineCode.336_ACSR_3PH_336_ACSR_N_12KV_4 nphases=4 units=km Rmatrix=[ 0.013325 | 0 0.013325 | 0 0 0.013325 | 0 0 0 0.013325 ] Xmatrix=[ 0.026573 | 0 0.026573 | 0 0 0.026573 | 0 0 0 0.026573 ] Cmatrix=[ 0 | 0 0 | 0 0 0 | 0 0 0 0 ]
New LineCode.1/0_ATW_2PH_1/0_ATW_N_12KV_3_N nphases=3 units=km Rmatrix=[ 1e-05 | 0 1e-05 | 0 0 1e-05 ] Xmatrix=[ 1e-05 | 0 1e-05 | 0 0 1e-05 ] Cmatrix=[ 0 | 0 0 | 0 0 0 ]
New LineCode.1/0_A_ABC_12_2 nphases=2 units=km Rmatrix=[ 1e-05 | 0 1e-05 ] Xmatrix=[ 1e-05 | 0 1e-05 ] Cmatrix=[ 0 | 0 0 ]
New LineCode.2_AL_3PH_12KV_3 nphases=3 units=km Rmatrix=[ 0.136202 | 0 0.136202 | 0 0 0.136202 ] Xmatrix=[ 0.028709 | 0 0.028709 | 0 0 0.028709 ] Cmatrix=[ 0 | 0 0 | 0 0 0 ]
New LineCode.1/0_CLP_1PH_12KV_1 nphases=1 units=km Rmatrix=[ 0.093588 ] Xmatrix=[ 0.028605 ] Cmatrix=[ 0 ]
New LineCode.2_CU_3PH_12KV_2 nphases=2 units=km Rmatrix=[ 0.008837 | 0 0.008837 ] Xmatrix=[ 0.007187 | 0 0.007187 ] Cmatrix=[ 0 | 0 0 ]
New LineCode.2_JCN_2PH_12KV_2 nphases=2 units=km Rmatrix=[ 0.156689 | 0 0.156689 ] Xmatrix=[ 0.033027 | 0 0.033027 ] Cmatrix=[ 0 | 0 0 ]
New LineCode.1/0_ACSR_3PH_1/0_ACSR_N_12KV_4 nphases=4 units=km Rmatrix=[ 0.012323 | 0 0.012323 | 0 0 0.012323 | 0 0 0 0.012323 ] Xmatrix=[ 0.008905 | 0 0.008905 | 0 0 0.008905 | 0 0 0 0.008905 ] Cmatrix=[ 0 | 0 0 | 0 0 0 | 0 0 0 0 ]
New LineCode.4_CU_2PH_4_CU_N_12KV_3_N nphases=3 units=km Rmatrix=[ 0.007405 | 0 0.007405 | 0 0 0.007405 ] Xmatrix=[ 0.003664 | 0 0.003664 | 0 0 0.003664 ] Cmatrix=[ 0 | 0 0 | 0 0 0 ]
New LineCode.1/0_ACSR_2PH_12KV_3_N nphases=3 units=km Rmatrix=[ 0.161248 | 0 0.161248 | 0 0 0.161248 ] Xmatrix=[ 0.128385 | 0 0.128385 | 0 0 0.128385 ] Cmatrix=[ 0 | 0 0 | 0 0 0 ]

! Lines
New Line.P5347585-2$ND169422589 phases=2 Bus1=28097827.1.3 Bus2=-77777728097827.1.3 LineCode=2_CLP_2PH_12KV_2 Length=0.109232 units=km
New Line.PS0482$ND191433092 phases=3 Bus1=37527007.1.2.3 Bus2=-77777737527007.1.2.3 LineCode=__3PH_12KV_3 Length=0.213504 units=km
New Line.226595S$ND238061936 phases=2 Bus1=28196452.1.2 Bus2=-77777728196452.1.2 LineCode=8_CU_2PH_12KV_2 Length=0.039783 units=km
New Line.693412E$ND28302716 phases=2 Bus1=28188910.2.3 Bus2=-77777728188910.2.3 LineCode=4_CU_2PH_12KV_2 Length=0.044444 units=km
New Line.ND32852417$ND32852418 phases=3 Bus1=32852417.1.2.3 Bus2=-77777732852417.1.2.3 LineCode=4_CU_3PH_12KV_3 Length=0.454651 units=km
New Line.BF74990$ND238290223 phases=2 Bus1=212593080.1.2 Bus2=-777777212593080.1.2 LineCode=__2PH_12KV_2 Length=0.079758 units=km
New Line.ND243522698$ND28252211 phases=2 Bus1=28252211.1.2 Bus2=243522698.1.2 LineCode=1/0_ATW_2PH_12KV_2 Length=0.057547 units=km
New Line.1906011E$PMS1887-1 phases=2 Bus1=28078801.1.2 Bus2=28078889.1.2 LineCode=6_CU_2PH_12KV_2 Length=0.033795 units=km
New Line.P5411089-2$4155898E phases=3 Bus1=28079437.1.2.3 Bus2=28079462.1.2.3 LineCode=6_CU_3PH_12KV_3 Length=0.072081 units=km
New Line.P5331856-1$PMS1887-1 phases=2 Bus1=28078890.1.2 Bus2=28078939.1.2 LineCode=6_CU_2PH_12KV_2 Length=0.180875 units=km
New Line.1989710E$PMS1516-1 phases=2 Bus1=28121172.2.3 Bus2=28121260.2.3 LineCode=2_CU_2PH_12KV_2 Length=0.017854 units=km
New Line.693304E$176934741 phases=2 Bus1=28129996.2.3 Bus2=176934743.2.3 LineCode=2_CU_2PH_12KV_2 Length=0.014928 units=km
New Line.PMS1516-1$ND28252489 phases=2 Bus1=28121261.2.3 Bus2=28252489.2.3 LineCode=2_CU_2PH_12KV_2 Length=0.285067 units=km
New Line.2154927E$ND242658967 phases=2 Bus1=242658967.2.3 Bus2=28117436.2.3 LineCode=1/0_ATW_2PH_12KV_2 Length=0.128512 units=km
New Line.1591401E$ND242658967 phases=2 Bus1=242658967.2.3 Bus2=28117661.2.3 LineCode=1/0_ATW_2PH_12KV_2 Length=0.012194 units=km
New Line.BF73887$563324S phases=2 Bus1=174582330.2.3 Bus2=28131384.2.3 LineCode=1/0_ATW_2PH_12KV_2 Length=0.019963 units=km
New Line.2085151E$2085152E phases=2 Bus1=28120988.1.2 Bus2=28186672.1.2 LineCode=1/0_ATW_2PH_12KV_2 Length=0.109204 units=km
New Line.563324S$4747063E phases=2 Bus1=28131384.2.3 Bus2=109321534.2.3 LineCode=1/0_ATW_2PH_12KV_2 Length=0.099428 units=km
New Line.2223815E$BF03816 phases=2 Bus1=141811115.1.3 Bus2=109321964.1.3 LineCode=1/0_ATW_2PH_12KV_2 Length=0.070397 units=km
New Line.ND243498529$1342032E phases=3 Bus1=243498529.1.2.3 Bus2=28157058.1.2.3 LineCode=336_ATW_3PH_12KV_3 Length=0.304626 units=km
New Line.1342032E$ND28253043 phases=3 Bus1=28157058.1.2.3 Bus2=28253043.1.2.3 LineCode=336_ATW_3PH_12KV_3 Length=0.147066 units=km
New Line.2223815E$ND28262209 phases=2 Bus1=109321964.1.3 Bus2=28262209.1.3 LineCode=1/0_ATW_2PH_12KV_2 Length=0.109263 units=km
New Line.ND28262209$4055025E phases=2 Bus1=28262209.1.3 Bus2=28068699.1.3 LineCode=1/0_ATW_2PH_12KV_2 Length=0.105223 units=km
New Line.ND28262209$2223813E phases=2 Bus1=28262209.1.3 Bus2=28068724.1.3 LineCode=1/0_ATW_2PH_12KV_2 Length=0.088772 units=km
New Line.ND28251703$2233825E phases=3 Bus1=28251703.1.2.3 Bus2=28069188.1.2.3 LineCode=1/0_ATW_3PH_12KV_3 Length=0.090459 units=km
New Line.ND28251703$2343738E phases=2 Bus1=28251703.2.3 Bus2=28069288.2.3 LineCode=1/0_ATW_2PH_12KV_2 Length=0.027032 units=km
New Line.PD0477$2085152E phases=2 Bus1=28186672.1.2 Bus2=28195838.1.2 LineCode=1/0_ATW_2PH_12KV_2 Length=0.286002 units=km
New Line.1591401E$ND28197707 phases=2 Bus1=28117661.2.3 Bus2=28197707.2.3 LineCode=1/0_ATW_2PH_12KV_2 Length=0.0827 units=km
New Line.ND28253043$BF73895 phases=2 Bus1=28253043.2.3 Bus2=28197038.2.3 LineCode=1/0_ATW_2PH_12KV_2 Length=0.030873 units=km
New Line.ND28253043$ND28251217 phases=3 Bus1=28253043.1.2.3 Bus2=28251217.1.2.3 LineCode=336_ATW_3PH_12KV_3 Length=0.561186 units=km
New Line.4055025E$4119958E phases=2 Bus1=28068699.1.3 Bus2=28068674.1.3 LineCode=1/0_ATW_2PH_12KV_2 Length=0.188549 units=km
New Line.2343738E$3005940E phases=2 Bus1=28069288.2.3 Bus2=28069263.2.3 LineCode=1/0_ATW_2PH_12KV_2 Length=0.151125 units=km
New Line.2233825E$3006136E phases=3 Bus1=28069188.1.2.3 Bus2=28159938.1.2.3 LineCode=1/0_ATW_3PH_12KV_3 Length=0.233696 units=km
New Line.2223813E$ND28251710 phases=2 Bus1=28068724.1.3 Bus2=28251710.1.3 LineCode=1/0_ATW_2PH_12KV_2 Length=0.092587 units=km
New Line.ND28197707$4976721E phases=2 Bus1=28197707.2.3 Bus2=243184338.2.3 LineCode=1/0_ATW_2PH_12KV_2 Length=0.090827 units=km
New Line.4747063E$563326S phases=2 Bus1=109321534.2.3 Bus2=28117511.2.3 LineCode=1/0_ATW_2PH_12KV_2 Length=0.125793 units=km
New Line.ND28197707$1591404E phases=2 Bus1=28197707.2.3 Bus2=28117711.2.3 LineCode=1/0_ATW_2PH_12KV_2 Length=0.255719 units=km
New Line.ND28251710$2223818E phases=2 Bus1=28251710.1.3 Bus2=28068824.1.3 LineCode=1/0_ATW_2PH_12KV_2 Length=0.091477 units=km
New Line.3006136E$2360170E phases=3 Bus1=28159938.1.2.3 Bus2=28159963.1.2.3 LineCode=1/0_ATW_3PH_12KV_3 Length=0.084575 units=km
New Line.BF73895$ND28261984 phases=2 Bus1=28197039.2.3 Bus2=28261984.2.3 LineCode=1/0_ATW_2PH_12KV_2 Length=0.034786 units=km
New Line.2223818E$2223819E phases=2 Bus1=28068824.1.3 Bus2=28068799.1.3 LineCode=1/0_ATW_2PH_12KV_2 Length=0.100351 units=km
New Line.ND28261984$4042478E phases=2 Bus1=28261984.2.3 Bus2=28069059.2.3 LineCode=1/0_ATW_2PH_12KV_2 Length=0.099987 units=km
New Line.2360170E$4069564E phases=3 Bus1=28159963.1.2.3 Bus2=28159913.1.2.3 LineCode=1/0_ATW_3PH_12KV_3 Length=0.249484 units=km
New Line.1591404E$1591406E phases=2 Bus1=28117711.2.3 Bus2=28117736.2.3 LineCode=1/0_ATW_2PH_12KV_2 Length=0.14487 units=km
New Line.563326S$4882155E phases=2 Bus1=28117511.2.3 Bus2=28131409.2.3 LineCode=1/0_ATW_2PH_12KV_2 Length=0.088758 units=km
New Line.4976721E$4976476E phases=2 Bus1=243184338.2.3 Bus2=28132476.2.3 LineCode=1/0_ATW_2PH_12KV_2 Length=0.118363 units=km
New Line.ND28197666$PD0477 phases=2 Bus1=28195839.1.2 Bus2=28197666.1.2 LineCode=1/0_ATW_2PH_12KV_2 Length=0.453851 units=km
New Line.ND28261984$ND28261323 phases=2 Bus1=28261984.2.3 Bus2=28261323.2.3 LineCode=1/0_ATW_2PH_12KV_2 Length=0.186783 units=km
New Line.2223819E$2363361E phases=2 Bus1=28068799.1.3 Bus2=28068774.1.3 LineCode=1/0_ATW_2PH_12KV_2 Length=0.189695 units=km
New Line.ND28261323$4019854E phases=2 Bus1=28261323.2.3 Bus2=28069084.2.3 LineCode=1/0_ATW_2PH_12KV_2 Length=0.0851 units=km
New Line.ND28261323$2342459E phases=2 Bus1=28261323.2.3 Bus2=28069109.2.3 LineCode=1/0_ATW_2PH_12KV_2 Length=0.086644 units=km
New Line.2363361E$BF76399 phases=2 Bus1=28068774.1.3 Bus2=244466381.1.3 LineCode=1/0_ATW_2PH_12KV_2 Length=0.107062 units=km
New Line.2342459E$4069415E phases=2 Bus1=28069109.2.3 Bus2=28069034.2.3 LineCode=1/0_ATW_2PH_12KV_2 Length=0.243752 units=km
New Line.4019854E$4265596E phases=2 Bus1=28069084.2.3 Bus2=28133385.2.3 LineCode=1/0_ATW_2PH_12KV_2 Length=0.107365 units=km
New Line.1591406E$53783CTC phases=2 Bus1=28117736.2.3 Bus2=28117686.2.3 LineCode=1/0_ATW_2PH_12KV_2 Length=0.20306 units=km
New Line.2136108E$ND28197666 phases=2 Bus1=28197666.1.2 Bus2=28121038.1.2 LineCode=1/0_ATW_2PH_12KV_2 Length=0.200735 units=km
New Line.4976476E$4976475E phases=2 Bus1=28132476.2.3 Bus2=28132501.2.3 LineCode=1/0_ATW_2PH_12KV_2 Length=0.071417 units=km
New Line.4882155E$ND28198416 phases=2 Bus1=28131409.2.3 Bus2=28198416.2.3 LineCode=1/0_ATW_2PH_12KV_2 Length=0.065528 units=km
New Line.ND28197666$ND28258905 phases=2 Bus1=28197666.1.2 Bus2=28258905.1.2 LineCode=1/0_ATW_2PH_12KV_2 Length=0.107695 units=km
New Line.ND28198416$2363921E phases=2 Bus1=28198416.2.3 Bus2=240343548.2.3 LineCode=1/0_ATW_2PH_12KV_2 Length=0.083178 units=km
New Line.ND247983385$ND28258905 phases=2 Bus1=28258905.1.2 Bus2=247983385.1.2 LineCode=1/0_ATW_2PH_12KV_2 Length=0.13663 units=km
New Line.4069415E$4186523E phases=2 Bus1=28069034.2.3 Bus2=28069009.2.3 LineCode=1/0_ATW_2PH_12KV_2 Length=0.137411 units=km
New Line.ND28198416$2293312E phases=2 Bus1=28198416.2.3 Bus2=28117561.2.3 LineCode=1/0_ATW_2PH_12KV_2 Length=0.125047 units=km
New Line.ND28198416$4092650E phases=2 Bus1=28198416.2.3 Bus2=28187088.2.3 LineCode=1/0_ATW_2PH_12KV_2 Length=0.03742 units=km
New Line.ND28258905$4042253E phases=2 Bus1=28258905.1.2 Bus2=28189043.1.2 LineCode=1/0_ATW_2PH_12KV_2 Length=0.154875 units=km
New Line.4976475E$ND28260018 phases=2 Bus1=28132501.2.3 Bus2=28260018.2.3 LineCode=1/0_ATW_2PH_12KV_2 Length=0.131702 units=km
New Line.2293312E$4686492E phases=2 Bus1=28117561.2.3 Bus2=105047620.2.3 LineCode=1/0_ATW_2PH_12KV_2 Length=0.137805 units=km
New Line.BF76399$ND28198429 phases=2 Bus1=244466380.1.3 Bus2=28198429.1.3 LineCode=1/0_ATW_2PH_12KV_2 Length=0.007292 units=km
New Line.ND28198429$2363357E phases=2 Bus1=28198429.1.3 Bus2=28068849.1.3 LineCode=1/0_ATW_2PH_12KV_2 Length=0.100848 units=km
New Line.ND28198429$2377614E phases=2 Bus1=28198429.1.3 Bus2=28068857.1.3 LineCode=1/0_ATW_2PH_12KV_2 Length=0.031766 units=km
New Line.ND247983355$ND247983385 phases=2 Bus1=247983385.1.2 Bus2=247983355.1.2 LineCode=1/0_ATW_2PH_12KV_2 Length=0.185386 units=km
New Line.4092650E$4092647E phases=2 Bus1=28187088.2.3 Bus2=28117486.2.3 LineCode=1/0_ATW_2PH_12KV_2 Length=0.231372 units=km
New Line.ND28260018$3005708E phases=2 Bus1=28260018.2.3 Bus2=28117586.2.3 LineCode=1/0_ATW_2PH_12KV_2 Length=0.082001 units=km
New Line.ND28260018$4019521E phases=2 Bus1=28260018.2.3 Bus2=28117611.2.3 LineCode=1/0_ATW_2PH_12KV_2 Length=0.069547 units=km
New Line.ND28260018$2264106E phases=2 Bus1=28260018.2.3 Bus2=28117636.2.3 LineCode=1/0_ATW_2PH_12KV_2 Length=0.388618 units=km
New Line.2363357E$ND28259493 phases=2 Bus1=28068849.1.3 Bus2=28259493.1.3 LineCode=1/0_ATW_2PH_12KV_2 Length=0.089773 units=km
New Line.ND28259493$4155998E phases=2 Bus1=28259493.1.3 Bus2=28068749.1.3 LineCode=1/0_ATW_2PH_12KV_2 Length=0.063299 units=km
New Line.ND28259493$FD05997 phases=2 Bus1=28259493.1.3 Bus2=28157670.1.3 LineCode=1/0_ATW_2PH_12KV_2 Length=0.028461 units=km
New Line.4019521E$4686456E phases=2 Bus1=28117611.2.3 Bus2=105047586.2.3 LineCode=1/0_ATW_2PH_12KV_2 Length=0.074935 units=km
New Line.2085164E$ND247983355 phases=2 Bus1=247983355.1.2 Bus2=28121013.1.2 LineCode=1/0_ATW_2PH_12KV_2 Length=0.159947 units=km
New Line.ND28253008$4920524E phases=3 Bus1=28253008.1.2.3 Bus2=28130452.1.2.3 LineCode=1/0_ATW_3PH_12KV_3 Length=0.083656 units=km
New Line.4920524E$ND28198216 phases=3 Bus1=28130452.1.2.3 Bus2=28198216.1.2.3 LineCode=1/0_ATW_3PH_12KV_3 Length=0.082684 units=km
New Line.ND28198216$BF75009 phases=2 Bus1=28198216.2.3 Bus2=211310446.2.3 LineCode=1/0_ATW_2PH_12KV_2 Length=0.008674 units=km
New Line.ND28198216$ND28253212 phases=3 Bus1=28198216.1.2.3 Bus2=28253212.1.2.3 LineCode=1/0_ATW_3PH_12KV_3 Length=0.037288 units=km
New Line.ND28253212$BF75010 phases=2 Bus1=28253212.1.2 Bus2=211310485.1.2 LineCode=1/0_ATW_2PH_12KV_2 Length=0.009652 units=km
New Line.4119983E$226749S phases=3 Bus1=28069594.1.2.3 Bus2=28069769.1.2.3 LineCode=1/0_ATW_3PH_12KV_3 Length=0.099178 units=km
New Line.66313S$ND211310434 phases=2 Bus1=211310434.1.2 Bus2=28098382.1.2 LineCode=1/0_ATW_2PH_12KV_2 Length=0.05162 units=km
New Line.ND28253212$4920523E phases=3 Bus1=28253212.1.2.3 Bus2=28098432.1.2.3 LineCode=1/0_ATW_3PH_12KV_3 Length=0.043531 units=km
New Line.BF75009$4913135E phases=2 Bus1=211310447.2.3 Bus2=28132751.2.3 LineCode=1/0_ATW_2PH_12KV_2 Length=0.048029 units=km
New Line.BF75010$2360383E phases=2 Bus1=211310486.1.2 Bus2=219364801.1.2 LineCode=1/0_ATW_2PH_12KV_2 Length=0.037619 units=km
New Line.ND28261007$4988524E phases=3 Bus1=28261007.1.2.3 Bus2=241705317.1.2.3 LineCode=1/0_ATW_3PH_12KV_3 Length=0.056228 units=km
New Line.1373759E$ND260110434 phases=3 Bus1=32816651.1.2.3 Bus2=260110434.1.2.3 LineCode=336_ATW_3PH_12KV_3 Length=1.77604 units=km
New Line.4913135E$267488S phases=2 Bus1=28132751.2.3 Bus2=28157164.2.3 LineCode=1/0_ATW_2PH_12KV_2 Length=0.078215 units=km
New Line.ND164608849$ND260110434 phases=3 Bus1=260110434.1.2.3 Bus2=164608849.1.2.3 LineCode=336_ATW_3PH_12KV_3 Length=0.154293 units=km
New Line.2360383E$2360385E phases=2 Bus1=219364801.1.2 Bus2=28098407.1.2 LineCode=1/0_ATW_2PH_12KV_2 Length=0.047319 units=km
New Line.ND164608849$ND253448831 phases=3 Bus1=164608849.1.2.3 Bus2=253448831.1.2.3 LineCode=1/0_ATW_3PH_12KV_3 Length=0.057319 units=km
New Line.ND164608849$ND261972664 phases=3 Bus1=164608849.1.2.3 Bus2=261972664.1.2.3 LineCode=336_ATW_3PH_12KV_3 Length=0.025357 units=km
New Line.ND253448831$4961843E phases=3 Bus1=253448831.1.2.3 Bus2=253448777.1.2.3 LineCode=1/0_ATW_3PH_12KV_3 Length=0.011276 units=km
New Line.ND169437859$ND71058081 phases=3 Bus1=169437859.1.2.3 Bus2=71058081.1.2.3 LineCode=336_ATW_3PH_12KV_3 Length=0.172237 units=km
New Line.4961843E$BR1721 phases=3 Bus1=253448778.1.2.3 Bus2=253448714.1.2.3 LineCode=1/0_ATW_3PH_12KV_3 Length=0.013796 units=km
New Line.1373770E$ND71058081 phases=3 Bus1=71058081.1.2.3 Bus2=32765762.1.2.3 LineCode=336_ATW_3PH_12KV_3 Length=0.781887 units=km
New Line.1373772E$ND253448854 phases=2 Bus1=253448854.1.3 Bus2=245303817.1.3 LineCode=1/0_ATW_2PH_12KV_2 Length=0.105794 units=km
New Line.ND253448854$BR1721 phases=3 Bus1=253448854.1.2.3 Bus2=253448715.1.2.3 LineCode=1/0_ATW_3PH_12KV_3 Length=1.04804 units=km
New Line.1373770E$588332E phases=3 Bus1=32765762.1.2.3 Bus2=32765791.1.2.3 LineCode=336_ATW_3PH_12KV_3 Length=0.799331 units=km
New Line.ND245303887$1373772E phases=2 Bus1=245303817.1.3 Bus2=245303887.1.3 LineCode=1/0_ATW_2PH_12KV_2 Length=0.324061 units=km
New Line.588332E$588335E phases=3 Bus1=32765791.1.2.3 Bus2=32765820.1.2.3 LineCode=336_ATW_3PH_12KV_3 Length=0.159758 units=km
New Line.588335E$2297545E phases=3 Bus1=32765820.1.2.3 Bus2=32815076.1.2.3 LineCode=336_ATW_3PH_12KV_3 Length=0.08165 units=km
New Line.PH695$ND245303887 phases=2 Bus1=245303887.1.3 Bus2=71058075.1.3 LineCode=1/0_ATW_2PH_12KV_2 Length=0.268972 units=km
New Line.2297545E$1373783E phases=3 Bus1=32815076.1.2.3 Bus2=32765849.1.2.3 LineCode=336_ATW_3PH_12KV_3 Length=0.268499 units=km
New Line.1373783E$325463E phases=3 Bus1=32765849.1.2.3 Bus2=32765878.1.2.3 LineCode=336_ATW_3PH_12KV_3 Length=0.097479 units=km
New Line.PS1003$325463E phases=3 Bus1=32765878.1.2.3 Bus2=32851108.1.2.3 LineCode=336_ATW_3PH_12KV_3 Length=0.085649 units=km
New Line.PS1003$ND164608908 phases=3 Bus1=32851109.1.2.3 Bus2=164608908.1.2.3 LineCode=336_ATW_3PH_12KV_3 Length=0.992883 units=km
New Line.ND164608908$ND32851462 phases=3 Bus1=164608908.1.2.3 Bus2=32851462.1.2.3 LineCode=336_ATW_3PH_12KV_3 Length=0.125033 units=km
New Line.ND32851462$BF91501 phases=2 Bus1=32851462.1.3 Bus2=212953494.1.3 LineCode=1/0_ATW_2PH_12KV_2 Length=0.018617 units=km
New Line.ND32851462$ND239493368 phases=3 Bus1=32851462.1.2.3 Bus2=239493368.1.2.3 LineCode=336_ATW_3PH_12KV_3 Length=0.271892 units=km
New Line.BF91501$ND212953515 phases=2 Bus1=212953495.1.3 Bus2=212953515.1.3 LineCode=1/0_ATW_2PH_12KV_2 Length=0.138189 units=km
New Line.ND32851476$1403457E phases=3 Bus1=32818002.1.2.3 Bus2=32851476.1.2.3 LineCode=336_ATW_3PH_12KV_3 Length=0.212007 units=km
New Line.ND32851476$ND149236125 phases=3 Bus1=32851476.1.2.3 Bus2=149236125.1.2.3 LineCode=336_ATW_3PH_12KV_3 Length=0.502931 units=km
New Line.ND32851476$BF91502 phases=2 Bus1=32851476.1.2 Bus2=212953550.1.2 LineCode=1/0_ATW_2PH_12KV_2 Length=0.011513 units=km
New Line.ND212953515$1769449E phases=2 Bus1=212953515.1.3 Bus2=32765980.1.3 LineCode=1/0_ATW_2PH_12KV_2 Length=0.006973 units=km
New Line.1769449E$674212E phases=2 Bus1=32765980.1.3 Bus2=32817534.1.3 LineCode=1/0_ATW_2PH_12KV_2 Length=0.069122 units=km
New Line.ND32851137$ND149236125 phases=3 Bus1=149236125.1.2.3 Bus2=32851137.1.2.3 LineCode=336_ATW_3PH_12KV_3 Length=1.03237 units=km
New Line.674212E$674215E phases=2 Bus1=32817534.1.3 Bus2=32765955.1.3 LineCode=1/0_ATW_2PH_12KV_2 Length=0.241789 units=km
New Line.2015142E$BF91502 phases=2 Bus1=212953551.1.2 Bus2=32766030.1.2 LineCode=1/0_ATW_2PH_12KV_2 Length=0.064952 units=km
New Line.ND32851137$RCS1176 phases=3 Bus1=32851137.1.2.3 Bus2=32850971.1.2.3 LineCode=336_ATW_3PH_12KV_3 Length=0.330009 units=km
New Line.2015142E$2176054E phases=2 Bus1=32766030.1.2 Bus2=32766005.1.2 LineCode=1/0_ATW_2PH_12KV_2 Length=0.15913 units=km
New Line.ND32852750$674215E phases=2 Bus1=32765955.1.3 Bus2=32852750.1.3 LineCode=1/0_ATW_2PH_12KV_2 Length=0.098884 units=km
New Line.ND32852750$674217E phases=2 Bus1=32852750.1.3 Bus2=32765930.1.3 LineCode=1/0_ATW_2PH_12KV_2 Length=0.114528 units=km
New Line.ND32852750$1963951E phases=2 Bus1=32852750.1.3 Bus2=32817821.1.3 LineCode=1/0_ATW_2PH_12KV_2 Length=0.06621 units=km
New Line.674217E$674222E phases=2 Bus1=32765930.1.3 Bus2=32765905.1.3 LineCode=1/0_ATW_2PH_12KV_2 Length=0.488239 units=km
New Line.4005995E$ND28251442 phases=3 Bus1=28099735.1.2.3 Bus2=28251442.1.2.3 LineCode=1/0_ATW_3PH_12KV_3 Length=0.090778 units=km
New Line.GS2788-1$04726 phases=3 Bus1=-8888882144961.1.2.3 Bus2=144943999.1.2.3 LineCode=750_JCN_3PH_12KV_3 Length=0.337386 units=km
New Line.241460319$P5417040-A phases=2 Bus1=241460322.1.2 Bus2=241460245.1.2 LineCode=1/0_AL_2PH_12KV_2 Length=0.004974 units=km
New Line.P5325371-B$BS2064-1 phases=3 Bus1=153223111.1.2.3 Bus2=28156482.1.2.3 LineCode=1/0_CLP_3PH_12KV_3 Length=0.143204 units=km
New Line.P5431779-2$P5585787-2 phases=2 Bus1=28133545.1.3 Bus2=94757035.1.3 LineCode=2_CLP_2PH_12KV_2 Length=0.217013 units=km
New Line.ND95690910$1295009E phases=2 Bus1=95690910.1.2 Bus2=95690943.1.2 LineCode=2_ACSR_3PH_12KV_2 Length=0.03891 units=km
New Line.176760812$229820534 phases=2 Bus1=176760814.1.3 Bus2=229820536.1.3 LineCode=1/0_AL_2PH_12KV_2 Length=0.202627 units=km
New Line.ND41022890$GS2788-4 phases=3 Bus1=144944023.1.2.3 Bus2=41022866.1.2.3 LineCode=750_JCN_3PH_12KV_3 Length=0.409342 units=km
New Line.GS2788-5$ND240701388 phases=3 Bus1=144944031.1.2.3 Bus2=240701388.1.2.3 LineCode=2_JCN_3PH_12KV_3 Length=0.005726 units=km
New Line.ND41022890$ND41022851 phases=3 Bus1=41022866.1.2.3 Bus2=41022827.1.2.3 LineCode=750_CLP_3PH_12KV_3 Length=0.16105 units=km
New Line.ND41022851$GS1506-1 phases=3 Bus1=41022827.1.2.3 Bus2=101059486.1.2.3 LineCode=750_CLP_3PH_12KV_3 Length=0.195376 units=km
New Line.ND240701388$V5344581 phases=3 Bus1=240701388.1.2.3 Bus2=160986392.1.2.3 LineCode=2_JCN_3PH_12KV_3 Length=0.017395 units=km
New Line.ND240701388$P5584920-1 phases=3 Bus1=240701388.1.2.3 Bus2=240701340.1.2.3 LineCode=2_JCN_3PH_12KV_3 Length=0.053666 units=km
New Line.GS1506-2$ND41230194 phases=3 Bus1=101059478.1.2.3 Bus2=41230194.1.2.3 LineCode=1/0_CLP_3PH_12KV_3 Length=0.079432 units=km
New Line.P5332077-1$ND41230194 phases=3 Bus1=41230194.1.2.3 Bus2=41023048.1.2.3 LineCode=1/0_CLP_3PH_12KV_3 Length=0.067858 units=km
New Line.GS1506-3$V5400923T phases=1 Bus1=101059494.3 Bus2=41193039.3 LineCode=2_CLP_1PH_12KV_1 Length=0.001861 units=km
New Line.ND41230194$ND41228580 phases=3 Bus1=41230194.1.2.3 Bus2=41228580.1.2.3 LineCode=1/0_CLP_3PH_12KV_3 Length=0.005375 units=km
New Line.GS1506-4$ND135501716 phases=3 Bus1=101059502.1.2.3 Bus2=135501716.1.2.3 LineCode=750_CLP_3PH_12KV_3 Length=0.434847 units=km
New Line.ND41228580$4148751E phases=3 Bus1=41228580.1.2.3 Bus2=41070629.1.2.3 LineCode=1/0_CLP_3PH_12KV_3 Length=0.125317 units=km
New Line.ND41228580$V5400919 phases=3 Bus1=41228580.1.2.3 Bus2=41193035.1.2.3 LineCode=1/0_CLP_3PH_12KV_3 Length=0.208976 units=km
New Line.135501732$ND135501716 phases=3 Bus1=135501716.1.2.3 Bus2=135501734.1.2.3 LineCode=2_JCN_3PH_12KV_3 Length=0.026794 units=km
New Line.ND41023117$ND135501716 phases=3 Bus1=135501716.1.2.3 Bus2=41023093.1.2.3 LineCode=750_CLP_3PH_12KV_3 Length=0.01476 units=km
New Line.V5400919$4301907E phases=3 Bus1=41193035.1.2.3 Bus2=41155394.1.2.3 LineCode=1/0_CLP_3PH_12KV_3 Length=0.106131 units=km
New Line.ND41023117$GS1507-3 phases=3 Bus1=41023093.1.2.3 Bus2=41132779.1.2.3 LineCode=750_CLP_3PH_12KV_3 Length=0.194209 units=km
New Line.135501732$P5520152-1 phases=3 Bus1=135501735.1.2.3 Bus2=135501762.1.2.3 LineCode=2_JCN_3PH_12KV_3 Length=0.002061 units=km
New Line.GS1507-2$ND41195967 phases=3 Bus1=41132771.1.2.3 Bus2=41195967.1.2.3 LineCode=750_CLP_3PH_12KV_3 Length=0.026008 units=km
New Line.ND144377977$GS1507-1 phases=3 Bus1=41132763.1.2.3 Bus2=144377977.1.2.3 LineCode=750_CLP_3PH_12KV_3 Length=0.195119 units=km
New Line.ND41195967$196987948 phases=3 Bus1=41195967.1.2.3 Bus2=196987950.1.2.3 LineCode=1/0_CLP_3PH_12KV_3 Length=0.078401 units=km
New Line.ND41195967$V5400913T1 phases=3 Bus1=41195967.1.2.3 Bus2=41178474.1.2.3 LineCode=750_CLP_3PH_12KV_3 Length=0.222557 units=km
New Line.ND41195967$ND41227731 phases=3 Bus1=41195967.1.2.3 Bus2=41227731.1.2.3 LineCode=1/0_CLP_3PH_12KV_3 Length=0.109521 units=km
New Line.ND144377977$GS2789-3 phases=3 Bus1=144377977.1.2.3 Bus2=144377844.1.2.3 LineCode=750_CLP_3PH_12KV_3 Length=0.029306 units=km
New Line.ND41227731$V5400911T1 phases=3 Bus1=41227731.1.2.3 Bus2=41178478.1.2.3 LineCode=1/0_CLP_3PH_12KV_3 Length=0.009807 units=km
New Line.ND41227731$ND41244371 phases=3 Bus1=41227731.1.2.3 Bus2=41244371.1.2.3 LineCode=1/0_CLP_3PH_12KV_3 Length=0.061995 units=km
New Line.ND94881676$ND144377977 phases=3 Bus1=144377977.1.2.3 Bus2=94881676.1.2.3 LineCode=750_CLP_3PH_12KV_3 Length=0.123607 units=km
New Line.ND94881676$V5400908 phases=3 Bus1=94881676.1.2.3 Bus2=144738832.1.2.3 LineCode=750_CLP_3PH_12KV_3 Length=0.06572 units=km
New Line.ND196312600$196987948 phases=3 Bus1=196987951.1.2.3 Bus2=196312600.1.2.3 LineCode=1/0_CLP_3PH_12KV_3 Length=0.010362 units=km
New Line.P5199621-1$ND41244371 phases=3 Bus1=41244371.1.2.3 Bus2=41023183.1.2.3 LineCode=1/0_CLP_3PH_12KV_3 Length=0.102126 units=km
New Line.ND41244371$P5415739-1 phases=3 Bus1=41244371.1.2.3 Bus2=41023231.1.2.3 LineCode=1/0_CLP_3PH_12KV_3 Length=0.012482 units=km
New Line.P5344728-1$ND94881676 phases=3 Bus1=94881676.1.2.3 Bus2=41023279.1.2.3 LineCode=750_CLP_3PH_12KV_3 Length=0.062872 units=km
New Line.196312578$ND196312600 phases=3 Bus1=196312600.1.2.3 Bus2=196312581.1.2.3 LineCode=1/0_JCN_3PH_12KV_3 Length=0.009515 units=km
New Line.196987958$ND196312600 phases=3 Bus1=196312600.1.2.3 Bus2=196987961.1.2.3 LineCode=1/0_CLP_3PH_12KV_3 Length=0.007773 units=km
New Line.V5400908$GS1508-4 phases=3 Bus1=144738832.1.2.3 Bus2=41156280.1.2.3 LineCode=750_CLP_3PH_12KV_3 Length=0.015868 units=km
New Line.4185912E$PMS1474-1 phases=2 Bus1=28098541.1.3 Bus2=28098674.1.3 LineCode=1/0_AL_2PH_12KV_2 Length=0.014829 units=km
New Line.214679684$PMS1463-1 phases=3 Bus1=214679687.1.2.3 Bus2=28118892.1.2.3 LineCode=1/0_CLP_3PH_12KV_3 Length=0.004082 units=km
New Line.ND110042363$4616212E phases=3 Bus1=110042363.1.2.3 Bus2=110042341.1.2.3 LineCode=4_ACSR_3PH_12KV_3 Length=0.098695 units=km
New Line.182762080$P5386681-1 phases=2 Bus1=28119627.2.3 Bus2=182762083.2.3 LineCode=350_AL_2PH_12KV_2 Length=0.002847 units=km
New Line.196312578$196312649 phases=3 Bus1=196312580.1.2.3 Bus2=196312651.1.2.3 LineCode=1/0_JCN_3PH_12KV_3 Length=0.029334 units=km
New Line.197649281$4686475E phases=2 Bus1=197649262.2.3 Bus2=197649283.2.3 LineCode=1/0_JCN_2PH_12KV_2 Length=0.113819 units=km
New Line.P5208599-1$196987958 phases=3 Bus1=196987960.1.2.3 Bus2=41023135.1.2.3 LineCode=1/0_CLP_3PH_12KV_3 Length=0.055197 units=km
New Line.196312649$P5572991-1 phases=3 Bus1=196312652.1.2.3 Bus2=196312614.1.2.3 LineCode=1/0_JCN_3PH_12KV_3 Length=0.001875 units=km
New Line.197649281$P5588661-1 phases=2 Bus1=197649284.2.3 Bus2=197649299.2.3 LineCode=1/0_JCN_2PH_12KV_2 Length=0.001921 units=km
New Line.4568451E$GS1508-3 phases=3 Bus1=41156272.1.2.3 Bus2=41070967.1.2.3 LineCode=750_CLP_3PH_12KV_3 Length=0.073344 units=km
New Line.GS2790-1$GS1508-2 phases=3 Bus1=41156256.1.2.3 Bus2=142775517.1.2.3 LineCode=750_JCN_3PH_12KV_3 Length=0.131292 units=km
New Line.GS1508-1$ND41195776 phases=3 Bus1=41156264.1.2.3 Bus2=41195776.1.2.3 LineCode=750_CLP_3PH_12KV_3 Length=0.09884 units=km
New Line.ND41195776$P5411084-A phases=3 Bus1=41195776.1.2.3 Bus2=153223242.1.2.3 LineCode=750_CLP_3PH_12KV_3 Length=0.064558 units=km
New Line.ND41195776$GS1509-3 phases=3 Bus1=41195776.1.2.3 Bus2=41132643.1.2.3 LineCode=750_CLP_3PH_12KV_3 Length=0.206676 units=km
New Line.PME1246-4$P5383500-1 phases=2 Bus1=94889674.2.3 Bus2=28080099.2.3 LineCode=2_CLP_2PH_12KV_2 Length=0.189736 units=km
New Line.P5386392-1$BS2064-1 phases=3 Bus1=28156481.1.2.3 Bus2=28080496.1.2.3 LineCode=1/0_CLP_3PH_12KV_3 Length=0.1551 units=km
New Line.ND41195776$V5411331T1 phases=3 Bus1=41195776.1.2.3 Bus2=41178900.1.2.3 LineCode=750_CLP_3PH_12KV_3 Length=0.010521 units=km
New Line.V5411331T1$132714797 phases=3 Bus1=41178900.1.2.3 Bus2=132714800.1.2.3 LineCode=1/0_JCN_3PH_12KV_3 Length=0.100782 units=km
New Line.ND196902691$GS2790-2 phases=3 Bus1=142775525.1.2.3 Bus2=196902691.1.2.3 LineCode=750_JCN_3PH_12KV_3 Length=0.010496 units=km
New Line.132714797$132714770 phases=3 Bus1=132714799.1.2.3 Bus2=132714772.1.2.3 LineCode=1/0_JCN_3PH_12KV_3 Length=0.080352 units=km
New Line.ND142775675$GS2790-3 phases=3 Bus1=142775533.1.2.3 Bus2=142775675.1.2.3 LineCode=750_JCN_3PH_12KV_3 Length=0.006167 units=km
New Line.P5411084-B$P5411085-A phases=3 Bus1=153223225.1.2.3 Bus2=153223341.1.2.3 LineCode=750_CLP_3PH_12KV_3 Length=0.220105 units=km
New Line.ND196902691$269791495 phases=3 Bus1=196902691.1.2.3 Bus2=269791497.1.2.3 LineCode=1/0_JCN_3PH_12KV_3 Length=0.00507 units=km
New Line.ND41244189$ND196902691 phases=3 Bus1=196902691.1.2.3 Bus2=41244189.1.2.3 LineCode=750_JCN_3PH_12KV_3 Length=0.021319 units=km
New Line.ND41244189$196902708 phases=3 Bus1=41244189.1.2.3 Bus2=196902710.1.2.3 LineCode=750_JCN_3PH_12KV_3 Length=0.045452 units=km
New Line.ND41244189$196902742 phases=3 Bus1=41244189.1.2.3 Bus2=196902744.1.2.3 LineCode=750_JCN_3PH_12KV_3 Length=0.113109 units=km
New Line.ND142775675$GS1513-1 phases=3 Bus1=142775675.1.2.3 Bus2=41081469.1.2.3 LineCode=750_JCN_3PH_12KV_3 Length=0.250725 units=km
New Line.GS1509-2$V5411335T phases=3 Bus1=41132635.1.2.3 Bus2=41193025.1.2.3 LineCode=1/0_CLP_3PH_12KV_3 Length=0.018634 units=km
...

! Switches
New Line.5325716:PMS1889-1 phases=2 Bus1=28097890.1.3 Bus2=28097891.1.3 switch=y r1=0.001 x1=0.001 r0=0.001 x0=0.001 Length=0.001 units=km
New Line.5411096:PMS1468-1 phases=3 Bus1=28096241.1.2.3 Bus2=28096242.1.2.3 switch=y r1=0.001 x1=0.001 r0=0.001 x0=0.001 Length=0.001 units=km
New Line.5332128:PMS1700-1 phases=2 Bus1=28068946.1.3 Bus2=28068947.1.3 switch=y r1=0.001 x1=0.001 r0=0.001 x0=0.001 Length=0.001 units=km
New Line.5414353:PMS1483-1 phases=2 Bus1=28082172.1.3 Bus2=28082173.1.3 switch=y r1=0.001 x1=0.001 r0=0.001 x0=0.001 Length=0.001 units=km
New Line.5400964:PMS1343-1 phases=3 Bus1=28118488.1.2.3 Bus2=28118489.1.2.3 switch=y r1=0.001 x1=0.001 r0=0.001 x0=0.001 Length=0.001 units=km
New Line.5573054:P5573054-T phases=1 Bus1=246171703.1 Bus2=246171702.1 switch=y r1=0.001 x1=0.001 r0=0.001 x0=0.001 Length=0.001 units=km
New Line.5429787:PMS1613-1 phases=3 Bus1=28095839.1.2.3 Bus2=28095840.1.2.3 switch=y r1=0.001 x1=0.001 r0=0.001 x0=0.001 Length=0.001 units=km
New Line.5331855:PME1887-1 phases=2 Bus1=28078889.1.2 Bus2=28078890.1.2 switch=y r1=0.001 x1=0.001 r0=0.001 x0=0.001 Length=0.001 units=km
New Line.5517101:PMS7101-1 phases=2 Bus1=71058368.1.3 Bus2=71058369.1.3 switch=y r1=0.001 x1=0.001 r0=0.001 x0=0.001 Length=0.001 units=km
New Line.5416241:PMS1516-1 phases=2 Bus1=28121260.2.3 Bus2=28121261.2.3 switch=y r1=0.001 x1=0.001 r0=0.001 x0=0.001 Length=0.001 units=km
New Line.4961843E:BR1721 phases=3 Bus1=253448714.1.2.3 Bus2=253448715.1.2.3 switch=y r1=0.001 x1=0.001 r0=0.001 x0=0.001 Length=0.001 units=km
New Line.CAB_1963951E:1963951E phases=3 Bus1=32817821.1.2.3 Bus2=32817805.1.2.3 switch=y r1=0.001 x1=0.001 r0=0.001 x0=0.001 Length=0.001 units=km
New Line.CAB_674222E:674222E phases=3 Bus1=32765905.1.2.3 Bus2=32765889.1.2.3 switch=y r1=0.001 x1=0.001 r0=0.001 x0=0.001 Length=0.001 units=km
New Line.CAB_2360436E:2360436E phases=3 Bus1=28079343.1.2.3 Bus2=28079325.1.2.3 switch=y r1=0.001 x1=0.001 r0=0.001 x0=0.001 Length=0.001 units=km
New Line.CAB_2001386E:2001386E phases=3 Bus1=28099335.1.2.3 Bus2=28099319.1.2.3 switch=y r1=0.001 x1=0.001 r0=0.001 x0=0.001 Length=0.001 units=km
New Line.CAB_2157211E:2157211E phases=3 Bus1=28099660.1.2.3 Bus2=28099644.1.2.3 switch=y r1=0.001 x1=0.001 r0=0.001 x0=0.001 Length=0.001 units=km
New Line.CAB_4136136E:4136136E phases=3 Bus1=28119368.1.2.3 Bus2=28119352.1.2.3 switch=y r1=0.001 x1=0.001 r0=0.001 x0=0.001 Length=0.001 units=km
New Line.CAB_4134923E:4134923E phases=3 Bus1=28119468.1.2.3 Bus2=28119452.1.2.3 switch=y r1=0.001 x1=0.001 r0=0.001 x0=0.001 Length=0.001 units=km
New Line.CAB_4069574E:4069574E phases=3 Bus1=28121113.1.2.3 Bus2=28121097.1.2.3 switch=y r1=0.001 x1=0.001 r0=0.001 x0=0.001 Length=0.001 units=km
New Line.CAB_4185910E:4185910E phases=3 Bus1=28133915.1.2.3 Bus2=28133899.1.2.3 switch=y r1=0.001 x1=0.001 r0=0.001 x0=0.001 Length=0.001 units=km
New Line.CAB_4977316E:4977316E phases=3 Bus1=28156106.1.2.3 Bus2=28156090.1.2.3 switch=y r1=0.001 x1=0.001 r0=0.001 x0=0.001 Length=0.001 units=km
New Line.CAB_4833229E:4833229E phases=3 Bus1=28156448.1.2.3 Bus2=28156432.1.2.3 switch=y r1=0.001 x1=0.001 r0=0.001 x0=0.001 Length=0.001 units=km
New Line.CAB_4185903E:4185903E phases=3 Bus1=28189269.1.2.3 Bus2=28189253.1.2.3 switch=y r1=0.001 x1=0.001 r0=0.001 x0=0.001 Length=0.001 units=km
New Line.CAB_4355598E:4355598E phases=3 Bus1=28189294.1.2.3 Bus2=28189278.1.2.3 switch=y r1=0.001 x1=0.001 r0=0.001 x0=0.001 Length=0.001 units=km
New Line.CAB_4606213E:4606213E phases=3 Bus1=94889610.1.2.3 Bus2=94889593.1.2.3 switch=y r1=0.001 x1=0.001 r0=0.001 x0=0.001 Length=0.001 units=km
New Line.CAB_4646365E:4646365E phases=3 Bus1=98376995.1.2.3 Bus2=98376978.1.2.3 switch=y r1=0.001 x1=0.001 r0=0.001 x0=0.001 Length=0.001 units=km
New Line.CAB_4716916E:4716916E phases=3 Bus1=135251269.1.2.3 Bus2=135251252.1.2.3 switch=y r1=0.001 x1=0.001 r0=0.001 x0=0.001 Length=0.001 units=km
New Line.CAB_4876969E:4876969E phases=3 Bus1=236103138.1.2.3 Bus2=236103121.1.2.3 switch=y r1=0.001 x1=0.001 r0=0.001 x0=0.001 Length=0.001 units=km
New Line.CAB_4185911E:4185911E phases=3 Bus1=28098570.1.2.3 Bus2=28098554.1.2.3 switch=y r1=0.001 x1=0.001 r0=0.001 x0=0.001 Length=0.001 units=km
New Line.CAB_2293822E:2293822E phases=3 Bus1=28099285.1.2.3 Bus2=28099269.1.2.3 switch=y r1=0.001 x1=0.001 r0=0.001 x0=0.001 Length=0.001 units=km
New Line.CAB_2157212E:2157212E phases=3 Bus1=28099585.1.2.3 Bus2=28099569.1.2.3 switch=y r1=0.001 x1=0.001 r0=0.001 x0=0.001 Length=0.001 units=km
New Line.CAB_1906604E:1906604E phases=3 Bus1=28099685.1.2.3 Bus2=28099669.1.2.3 switch=y r1=0.001 x1=0.001 r0=0.001 x0=0.001 Length=0.001 units=km
New Line.CAB_4005995E:4005995E phases=3 Bus1=28099735.1.2.3 Bus2=28099719.1.2.3 switch=y r1=0.001 x1=0.001 r0=0.001 x0=0.001 Length=0.001 units=km
New Line.CAB_2293772E:2293772E phases=3 Bus1=28119837.1.2.3 Bus2=28119821.1.2.3 switch=y r1=0.001 x1=0.001 r0=0.001 x0=0.001 Length=0.001 units=km
New Line.CAB_4186503E:4186503E phases=3 Bus1=28187338.1.2.3 Bus2=28187322.1.2.3 switch=y r1=0.001 x1=0.001 r0=0.001 x0=0.001 Length=0.001 units=km
New Line.CAB_4355586E:4355586E phases=3 Bus1=28189369.1.2.3 Bus2=28189353.1.2.3 switch=y r1=0.001 x1=0.001 r0=0.001 x0=0.001 Length=0.001 units=km
New Line.DEALER$SUN_VILLAGE_RCS1159$RCS1159 phases=3 Bus1=224800994.1.2.3 Bus2=-777777224800994.1.2.3 switch=y r1=0.001 x1=0.001 r0=0.001 x0=0.001 Length=0.001 units=km
New Line.DEALER$ROBIN_RCS1176$RCS1176 phases=3 Bus1=32850972.1.2.3 Bus2=-77777732850972.1.2.3 switch=y r1=0.001 x1=0.001 r0=0.001 x0=0.001 Length=0.001 units=km
New Line.293588A3E6EAEE34E0637F61810A7CE3 phases=3 Bus1=240998445.1.2.3 Bus2=-777777240998445.1.2.3 switch=y r1=0.001 x1=0.001 r0=0.001 x0=0.001 Length=0.001 units=km
New Line.293588A3E632EE34E0637F61810A7CE3 phases=3 Bus1=28080753.1.2.3 Bus2=-77777728080753.1.2.3 switch=y r1=0.001 x1=0.001 r0=0.001 x0=0.001 Length=0.001 units=km
New Line.5344839:BS1888-L phases=2 Bus1=28081513.1.2 Bus2=28081512.1.2 switch=y r1=0.001 x1=0.001 r0=0.001 x0=0.001 Length=0.001 units=km enabled=false
New Line.5383498:PME1246-2 phases=3 Bus1=94889657.1.2.3 Bus2=-77777794889657.1.2.3 switch=y r1=0.001 x1=0.001 r0=0.001 x0=0.001 Length=0.001 units=km enabled=false
New Line.5344581:GS2788-3 phases=3 Bus1=144943980.1.2.3 Bus2=-777777144943980.1.2.3 switch=y r1=0.001 x1=0.001 r0=0.001 x0=0.001 Length=0.001 units=km enabled=false
New Line.5573054:P5573054-B phases=1 Bus1=246171703.1 Bus2=246171711.1 switch=y r1=0.001 x1=0.001 r0=0.001 x0=0.001 Length=0.001 units=km enabled=false
New Line.5573303:P5573303-B phases=3 Bus1=242839683.1.2.3 Bus2=242839700.1.2.3 switch=y r1=0.001 x1=0.001 r0=0.001 x0=0.001 Length=0.001 units=km enabled=false
New Line.1342000E:RAR1057 phases=3 Bus1=173007648.1.2.3 Bus2=173007647.1.2.3 switch=y r1=0.001 x1=0.001 r0=0.001 x0=0.001 Length=0.001 units=km
New Line.4013916E:RAR0653 phases=3 Bus1=174582669.1.2.3 Bus2=174582668.1.2.3 switch=y r1=0.001 x1=0.001 r0=0.001 x0=0.001 Length=0.001 units=km
New Line.4605977E:RAR0480 phases=3 Bus1=104736847.1.2.3 Bus2=104736848.1.2.3 switch=y r1=0.001 x1=0.001 r0=0.001 x0=0.001 Length=0.001 units=km
New Line.693401E:RAR1058 phases=3 Bus1=28133950.1.2.3 Bus2=28133949.1.2.3 switch=y r1=0.001 x1=0.001 r0=0.001 x0=0.001 Length=0.001 units=km
New Line.4044722E:RAR0262 phases=3 Bus1=32818072.1.2.3 Bus2=32818071.1.2.3 switch=y r1=0.001 x1=0.001 r0=0.001 x0=0.001 Length=0.001 units=km
New Line.176760812 phases=2 Bus1=176760815.1.3 Bus2=176760814.1.3 switch=y r1=0.001 x1=0.001 r0=0.001 x0=0.001 Length=0.001 units=km
New Line.176934741 phases=2 Bus1=176934743.2.3 Bus2=176934744.2.3 switch=y r1=0.001 x1=0.001 r0=0.001 x0=0.001 Length=0.001 units=km
New Line.214679684 phases=3 Bus1=214679686.1.2.3 Bus2=214679687.1.2.3 switch=y r1=0.001 x1=0.001 r0=0.001 x0=0.001 Length=0.001 units=km
New Line.223833440$PDREG1184-C phases=3 Bus1=223833399.1.2.3 Bus2=223833398.1.2.3 switch=y r1=0.001 x1=0.001 r0=0.001 x0=0.001 Length=0.001 units=km
New Line.PDREG1184-D$4716446E phases=3 Bus1=223833393.1.2.3 Bus2=223833423.1.2.3 switch=y r1=0.001 x1=0.001 r0=0.001 x0=0.001 Length=0.001 units=km
New Line.223833440$PDREG1184-B phases=3 Bus1=223833398.1.2.3 Bus2=223833386.1.2.3 switch=y r1=0.001 x1=0.001 r0=0.001 x0=0.001 Length=0.001 units=km
New Line.144943997$144944005 phases=3 Bus1=144943973.1.2.3 Bus2=144943974.1.2.3 switch=y r1=0.001 x1=0.001 r0=0.001 x0=0.001 Length=0.001 units=km
New Line.144944005$GS2788-3 phases=3 Bus1=144943974.1.2.3 Bus2=144943980.1.2.3 switch=y r1=0.001 x1=0.001 r0=0.001 x0=0.001 Length=0.001 units=km
New Line.GS2788-3$GS2788-4 phases=3 Bus1=144943980.1.2.3 Bus2=144943986.1.2.3 switch=y r1=0.001 x1=0.001 r0=0.001 x0=0.001 Length=0.001 units=km
New Line.GS2788-4$144944029 phases=3 Bus1=144943986.1.2.3 Bus2=144943992.1.2.3 switch=y r1=0.001 x1=0.001 r0=0.001 x0=0.001 Length=0.001 units=km
New Line.41022873$V5400926 phases=3 Bus1=41022866.1.2.3 Bus2=41022867.1.2.3 switch=y r1=0.001 x1=0.001 r0=0.001 x0=0.001 Length=0.001 units=km
New Line.41022834$V5400925 phases=3 Bus1=41022827.1.2.3 Bus2=41022828.1.2.3 switch=y r1=0.001 x1=0.001 r0=0.001 x0=0.001 Length=0.001 units=km
New Line.101059484$GS1506-2 phases=3 Bus1=101059458.1.2.3 Bus2=101059459.1.2.3 switch=y r1=0.001 x1=0.001 r0=0.001 x0=0.001 Length=0.001 units=km
New Line.GS1506-2$101059492 phases=3 Bus1=101059459.1.2.3 Bus2=101059465.1.2.3 switch=y r1=0.001 x1=0.001 r0=0.001 x0=0.001 Length=0.001 units=km
New Line.101059492$101059500 phases=3 Bus1=101059465.1.2.3 Bus2=101059471.1.2.3 switch=y r1=0.001 x1=0.001 r0=0.001 x0=0.001 Length=0.001 units=km
New Line.135501732 phases=3 Bus1=135501734.1.2.3 Bus2=135501735.1.2.3 switch=y r1=0.001 x1=0.001 r0=0.001 x0=0.001 Length=0.001 units=km
New Line.41023100$V5400917 phases=3 Bus1=41023093.1.2.3 Bus2=41023094.1.2.3 switch=y r1=0.001 x1=0.001 r0=0.001 x0=0.001 Length=0.001 units=km
New Line.GS1507-2$41132777 phases=3 Bus1=41132756.1.2.3 Bus2=41132750.1.2.3 switch=y r1=0.001 x1=0.001 r0=0.001 x0=0.001 Length=0.001 units=km
New Line.41132761$GS1507-2 phases=3 Bus1=41132750.1.2.3 Bus2=41132749.1.2.3 switch=y r1=0.001 x1=0.001 r0=0.001 x0=0.001 Length=0.001 units=km
New Line.196987948 phases=3 Bus1=196987950.1.2.3 Bus2=196987951.1.2.3 switch=y r1=0.001 x1=0.001 r0=0.001 x0=0.001 Length=0.001 units=km
New Line.PDREG1184-B$4716446E phases=3 Bus1=223833411.1.2.3 Bus2=223833387.1.2.3 switch=y r1=0.001 x1=0.001 r0=0.001 x0=0.001 Length=0.001 units=km
New Line.229820534 phases=2 Bus1=229820536.1.3 Bus2=229820537.1.3 switch=y r1=0.001 x1=0.001 r0=0.001 x0=0.001 Length=0.001 units=km
New Line.196312578 phases=3 Bus1=196312581.1.2.3 Bus2=196312580.1.2.3 switch=y r1=0.001 x1=0.001 r0=0.001 x0=0.001 Length=0.001 units=km
New Line.196987958 phases=3 Bus1=196987961.1.2.3 Bus2=196987960.1.2.3 switch=y r1=0.001 x1=0.001 r0=0.001 x0=0.001 Length=0.001 units=km
New Line.41156270$41156278 phases=3 Bus1=41156249.1.2.3 Bus2=41156243.1.2.3 switch=y r1=0.001 x1=0.001 r0=0.001 x0=0.001 Length=0.001 units=km
New Line.196312649 phases=3 Bus1=196312651.1.2.3 Bus2=196312652.1.2.3 switch=y r1=0.001 x1=0.001 r0=0.001 x0=0.001 Length=0.001 units=km
New Line.197649281 phases=2 Bus1=197649283.2.3 Bus2=197649284.2.3 switch=y r1=0.001 x1=0.001 r0=0.001 x0=0.001 Length=0.001 units=km
New Line.41156254$41156270 phases=3 Bus1=41156243.1.2.3 Bus2=41156237.1.2.3 switch=y r1=0.001 x1=0.001 r0=0.001 x0=0.001 Length=0.001 units=km
New Line.41156262$41156254 phases=3 Bus1=41156237.1.2.3 Bus2=41156236.1.2.3 switch=y r1=0.001 x1=0.001 r0=0.001 x0=0.001 Length=0.001 units=km
New Line.142775515$GS2790-2 phases=3 Bus1=142775503.1.2.3 Bus2=142775504.1.2.3 switch=y r1=0.001 x1=0.001 r0=0.001 x0=0.001 Length=0.001 units=km
New Line.GS2790-2$142775531 phases=3 Bus1=142775504.1.2.3 Bus2=142775510.1.2.3 switch=y r1=0.001 x1=0.001 r0=0.001 x0=0.001 Length=0.001 units=km
New Line.132714797 phases=3 Bus1=132714800.1.2.3 Bus2=132714799.1.2.3 switch=y r1=0.001 x1=0.001 r0=0.001 x0=0.001 Length=0.001 units=km
New Line.41132633$41132641 phases=3 Bus1=41132620.1.2.3 Bus2=41132614.1.2.3 switch=y r1=0.001 x1=0.001 r0=0.001 x0=0.001 Length=0.001 units=km
New Line.GS1509-1$41132633 phases=3 Bus1=41132614.1.2.3 Bus2=41132613.1.2.3 switch=y r1=0.001 x1=0.001 r0=0.001 x0=0.001 Length=0.001 units=km
New Line.132714770 phases=3 Bus1=132714772.1.2.3 Bus2=132714773.1.2.3 switch=y r1=0.001 x1=0.001 r0=0.001 x0=0.001 Length=0.001 units=km
New Line.269791495 phases=3 Bus1=269791497.1.2.3 Bus2=269791498.1.2.3 switch=y r1=0.001 x1=0.001 r0=0.001 x0=0.001 Length=0.001 units=km
New Line.196902708 phases=3 Bus1=196902710.1.2.3 Bus2=196902711.1.2.3 switch=y r1=0.001 x1=0.001 r0=0.001 x0=0.001 Length=0.001 units=km
New Line.196902742 phases=3 Bus1=196902744.1.2.3 Bus2=196902745.1.2.3 switch=y r1=0.001 x1=0.001 r0=0.001 x0=0.001 Length=0.001 units=km
New Line.41081467$GS1513-2 phases=3 Bus1=41081455.1.2.3 Bus2=41081456.1.2.3 switch=y r1=0.001 x1=0.001 r0=0.001 x0=0.001 Length=0.001 units=km
New Line.197202008 phases=3 Bus1=197202010.1.2.3 Bus2=197202011.1.2.3 switch=y r1=0.001 x1=0.001 r0=0.001 x0=0.001 Length=0.001 units=km
New Line.269791473 phases=3 Bus1=269791476.1.2.3 Bus2=269791475.1.2.3 switch=y r1=0.001 x1=0.001 r0=0.001 x0=0.001 Length=0.001 units=km
New Line.GS1513-2$41081483 phases=3 Bus1=41081456.1.2.3 Bus2=41081462.1.2.3 switch=y r1=0.001 x1=0.001 r0=0.001 x0=0.001 Length=0.001 units=km
New Line.269791485 phases=3 Bus1=269791488.1.2.3 Bus2=269791487.1.2.3 switch=y r1=0.001 x1=0.001 r0=0.001 x0=0.001 Length=0.001 units=km
New Line.269791505 phases=3 Bus1=269791508.1.2.3 Bus2=269791507.1.2.3 switch=y r1=0.001 x1=0.001 r0=0.001 x0=0.001 Length=0.001 units=km
New Line.182762080 phases=2 Bus1=182762083.2.3 Bus2=182762082.2.3 switch=y r1=0.001 x1=0.001 r0=0.001 x0=0.001 Length=0.001 units=km
New Line.196549741 phases=3 Bus1=196549743.1.2.3 Bus2=196549744.1.2.3 switch=y r1=0.001 x1=0.001 r0=0.001 x0=0.001 Length=0.001 units=km
New Line.196902720 phases=3 Bus1=196902723.1.2.3 Bus2=196902722.1.2.3 switch=y r1=0.001 x1=0.001 r0=0.001 x0=0.001 Length=0.001 units=km
New Line.176934753 phases=2 Bus1=176934756.2.3 Bus2=176934755.2.3 switch=y r1=0.001 x1=0.001 r0=0.001 x0=0.001 Length=0.001 units=km
New Line.206605825 phases=2 Bus1=206605827.1.2 Bus2=206605828.1.2 switch=y r1=0.001 x1=0.001 r0=0.001 x0=0.001 Length=0.001 units=km
New Line.214679623 phases=2 Bus1=214679625.1.3 Bus2=214679626.1.3 switch=y r1=0.001 x1=0.001 r0=0.001 x0=0.001 Length=0.001 units=km
New Line.214679696 phases=3 Bus1=214679699.1.2.3 Bus2=214679698.1.2.3 switch=y r1=0.001 x1=0.001 r0=0.001 x0=0.001 Length=0.001 units=km
New Line.241460331 phases=2 Bus1=241460334.1.2 Bus2=241460333.1.2 switch=y r1=0.001 x1=0.001 r0=0.001 x0=0.001 Length=0.001 units=km
New Line.265434392 phases=3 Bus1=265434394.1.2.3 Bus2=265434395.1.2.3 switch=y r1=0.001 x1=0.001 r0=0.001 x0=0.001 Length=0.001 units=km
New Line.269791570 phases=3 Bus1=269791572.1.2.3 Bus2=269791573.1.2.3 switch=y r1=0.001 x1=0.001 r0=0.001 x0=0.001 Length=0.001 units=km
New Line.182762168 phases=2 Bus1=182762170.1.2 Bus2=94889931.1.2 switch=y r1=0.001 x1=0.001 r0=0.001 x0=0.001 Length=0.001 units=km
New Line.182762004 phases=2 Bus1=182762006.2.3 Bus2=182762007.2.3 switch=y r1=0.001 x1=0.001 r0=0.001 x0=0.001 Length=0.001 units=km
New Line.206605951 phases=3 Bus1=206605953.1.2.3 Bus2=206605954.1.2.3 switch=y r1=0.001 x1=0.001 r0=0.001 x0=0.001 Length=0.001 units=km
New Line.196902732 phases=3 Bus1=196902734.1.2.3 Bus2=196902735.1.2.3 switch=y r1=0.001 x1=0.001 r0=0.001 x0=0.001 Length=0.001 units=km
New Line.265434380 phases=3 Bus1=265434383.1.2.3 Bus2=265434382.1.2.3 switch=y r1=0.001 x1=0.001 r0=0.001 x0=0.001 Length=0.001 units=km
New Line.265434440 phases=2 Bus1=265434443.2.3 Bus2=265434442.2.3 switch=y r1=0.001 x1=0.001 r0=0.001 x0=0.001 Length=0.001 units=km
New Line.214679762 phases=3 Bus1=214679764.1.2.3 Bus2=214679765.1.2.3 switch=y r1=0.001 x1=0.001 r0=0.001 x0=0.001 Length=0.001 units=km
New Line.265434474 phases=2 Bus1=265434476.2.3 Bus2=265434477.2.3 switch=y r1=0.001 x1=0.001 r0=0.001 x0=0.001 Length=0.001 units=km
New Line.241460341 phases=2 Bus1=241460343.1.2 Bus2=241460344.1.2 switch=y r1=0.001 x1=0.001 r0=0.001 x0=0.001 Length=0.001 units=km
New Line.P5718717-1$P5718717 phases=3 Bus1=240998451.1.2.3 Bus2=240998445.1.2.3 switch=y r1=0.001 x1=0.001 r0=0.001 x0=0.001 Length=0.001 units=km
New Line.110042385$P5520063 phases=3 Bus1=110042378.1.2.3 Bus2=110042379.1.2.3 switch=y r1=0.001 x1=0.001 r0=0.001 x0=0.001 Length=0.001 units=km
New Line.173741713 phases=2 Bus1=173741715.2.3 Bus2=173741716.2.3 switch=y r1=0.001 x1=0.001 r0=0.001 x0=0.001 Length=0.001 units=km
New Line.240786895 phases=2 Bus1=240786898.1.3 Bus2=240786897.1.3 switch=y r1=0.001 x1=0.001 r0=0.001 x0=0.001 Length=0.001 units=km
New Line.2363388E-1$2363388E phases=3 Bus1=28080759.1.2.3 Bus2=28080753.1.2.3 switch=y r1=0.001 x1=0.001 r0=0.001 x0=0.001 Length=0.001 units=km
New Line.P5718717$P5718717-2 phases=3 Bus1=240998445.1.2.3 Bus2=240998446.1.2.3 switch=y r1=0.001 x1=0.001 r0=0.001 x0=0.001 Length=0.001 units=km
New Line.138089467 phases=3 Bus1=138089469.1.2.3 Bus2=138089470.1.2.3 switch=y r1=0.001 x1=0.001 r0=0.001 x0=0.001 Length=0.001 units=km
New Line.214679774 phases=3 Bus1=214679777.1.2.3 Bus2=214679776.1.2.3 switch=y r1=0.001 x1=0.001 r0=0.001 x0=0.001 Length=0.001 units=km
New Line.182762156 phases=2 Bus1=182762159.1.2 Bus2=182762158.1.2 switch=y r1=0.001 x1=0.001 r0=0.001 x0=0.001 Length=0.001 units=km
New Line.2363388E$2363388E-2 phases=3 Bus1=28080753.1.2.3 Bus2=28080754.1.2.3 switch=y r1=0.001 x1=0.001 r0=0.001 x0=0.001 Length=0.001 units=km
New Line.28118762$28118786 phases=3 Bus1=28118766.1.2.3 Bus2=28118790.1.2.3 switch=y r1=0.001 x1=0.001 r0=0.001 x0=0.001 Length=0.001 units=km
New Line.169387822 phases=2 Bus1=169387824.1.3 Bus2=169387825.1.3 switch=y r1=0.001 x1=0.001 r0=0.001 x0=0.001 Length=0.001 units=km
New Line.206605837 phases=2 Bus1=206605840.1.2 Bus2=206605839.1.2 switch=y r1=0.001 x1=0.001 r0=0.001 x0=0.001 Length=0.001 units=km
New Line.214679611 phases=2 Bus1=214679614.1.3 Bus2=214679613.1.3 switch=y r1=0.001 x1=0.001 r0=0.001 x0=0.001 Length=0.001 units=km
New Line.240786907 phases=2 Bus1=240786909.1.3 Bus2=240786910.1.3 switch=y r1=0.001 x1=0.001 r0=0.001 x0=0.001 Length=0.001 units=km
New Line.28118786$28118770 phases=3 Bus1=28118790.1.2.3 Bus2=28118774.1.2.3 switch=y r1=0.001 x1=0.001 r0=0.001 x0=0.001 Length=0.001 units=km
New Line.240998682 phases=3 Bus1=240998684.1.2.3 Bus2=240998685.1.2.3 switch=y r1=0.001 x1=0.001 r0=0.001 x0=0.001 Length=0.001 units=km
New Line.201411747 phases=3 Bus1=201411749.1.2.3 Bus2=201411750.1.2.3 switch=y r1=0.001 x1=0.001 r0=0.001 x0=0.001 Length=0.001 units=km
New Line.2342921E:PS0613 phases=3 Bus1=165402204.1.2.3 Bus2=165402205.1.2.3 switch=y r1=0.001 x1=0.001 r0=0.001 x0=0.001 Length=0.001 units=km
New Line.5383498:PME1246-1 phases=3 Bus1=94889692.1.2.3 Bus2=94889656.1.2.3 switch=y r1=0.001 x1=0.001 r0=0.001 x0=0.001 Length=0.001 units=km
New Line.5400923:GS1506-1 phases=3 Bus1=101059486.1.2.3 Bus2=101059458.1.2.3 switch=y r1=0.001 x1=0.001 r0=0.001 x0=0.001 Length=0.001 units=km
New Line.5584920:P5584920-1 phases=3 Bus1=240701340.1.2.3 Bus2=240701341.1.2.3 switch=y r1=0.001 x1=0.001 r0=0.001 x0=0.001 Length=0.001 units=km
New Line.5400923:GS1506-2 phases=3 Bus1=101059459.1.2.3 Bus2=101059478.1.2.3 switch=y r1=0.001 x1=0.001 r0=0.001 x0=0.001 Length=0.001 units=km
New Line.5400923:GS1506-3 phases=3 Bus1=101059465.1.2.3 Bus2=101059494.1.2.3 switch=y r1=0.001 x1=0.001 r0=0.001 x0=0.001 Length=0.001 units=km
New Line.5400923:GS1506-4 phases=3 Bus1=101059471.1.2.3 Bus2=101059502.1.2.3 switch=y r1=0.001 x1=0.001 r0=0.001 x0=0.001 Length=0.001 units=km
New Line.5400913:GS1507-3 phases=3 Bus1=41132779.1.2.3 Bus2=41132756.1.2.3 switch=y r1=0.001 x1=0.001 r0=0.001 x0=0.001 Length=0.001 units=km
New Line.5400913:GS1507-2 phases=3 Bus1=41132750.1.2.3 Bus2=41132771.1.2.3 switch=y r1=0.001 x1=0.001 r0=0.001 x0=0.001 Length=0.001 units=km
New Line.5400913:GS1507-1 phases=3 Bus1=41132749.1.2.3 Bus2=41132763.1.2.3 switch=y r1=0.001 x1=0.001 r0=0.001 x0=0.001 Length=0.001 units=km
New Line.4716446E:PDREG1184-B phases=3 Bus1=223833386.1.2.3 Bus2=223833387.1.2.3 switch=y r1=0.001 x1=0.001 r0=0.001 x0=0.001 Length=0.001 units=km
New Line.5411332:GS2790-1 phases=3 Bus1=142775517.1.2.3 Bus2=142775503.1.2.3 switch=y r1=0.001 x1=0.001 r0=0.001 x0=0.001 Length=0.001 units=km
New Line.4069599E:RCS0405 phases=3 Bus1=95022405.1.2.3 Bus2=95022404.1.2.3 switch=y r1=0.001 x1=0.001 r0=0.001 x0=0.001 Length=0.001 units=km
New Line.5411332:GS2790-2 phases=3 Bus1=142775504.1.2.3 Bus2=142775525.1.2.3 switch=y r1=0.001 x1=0.001 r0=0.001 x0=0.001 Length=0.001 units=km
New Line.5411335:GS1509-3 phases=3 Bus1=41132643.1.2.3 Bus2=41132620.1.2.3 switch=y r1=0.001 x1=0.001 r0=0.001 x0=0.001 Length=0.001 units=km
New Line.5411332:GS2790-3 phases=3 Bus1=142775510.1.2.3 Bus2=142775533.1.2.3 switch=y r1=0.001 x1=0.001 r0=0.001 x0=0.001 Length=0.001 units=km
New Line.5411335:GS1509-2 phases=3 Bus1=41132614.1.2.3 Bus2=41132635.1.2.3 switch=y r1=0.001 x1=0.001 r0=0.001 x0=0.001 Length=0.001 units=km
New Line.5411085:P5411085-A phases=3 Bus1=153223341.1.2.3 Bus2=153223325.1.2.3 switch=y r1=0.001 x1=0.001 r0=0.001 x0=0.001 Length=0.001 units=km
New Line.5411085:P5411085-B phases=3 Bus1=153223325.1.2.3 Bus2=153223324.1.2.3 switch=y r1=0.001 x1=0.001 r0=0.001 x0=0.001 Length=0.001 units=km
New Line.5411085:P5411085-T phases=3 Bus1=153223325.1.2.3 Bus2=153223333.1.2.3 switch=y r1=0.001 x1=0.001 r0=0.001 x0=0.001 Length=0.001 units=km
New Line.5400903:GS1513-1 phases=3 Bus1=41081469.1.2.3 Bus2=41081455.1.2.3 switch=y r1=0.001 x1=0.001 r0=0.001 x0=0.001 Length=0.001 units=km
New Line.5411088:P5411088-B phases=3 Bus1=153223621.1.2.3 Bus2=153223622.1.2.3 switch=y r1=0.001 x1=0.001 r0=0.001 x0=0.001 Length=0.001 units=km enabled=false
New Line.5400903:GS1513-2 phases=3 Bus1=41081456.1.2.3 Bus2=41081477.1.2.3 switch=y r1=0.001 x1=0.001 r0=0.001 x0=0.001 Length=0.001 units=km
New Line.5411088:P5411088-T phases=3 Bus1=153223622.1.2.3 Bus2=153223630.1.2.3 switch=y r1=0.001 x1=0.001 r0=0.001 x0=0.001 Length=0.001 units=km
New Line.5411088:P5411088-A phases=3 Bus1=153223622.1.2.3 Bus2=153223638.1.2.3 switch=y r1=0.001 x1=0.001 r0=0.001 x0=0.001 Length=0.001 units=km
New Line.5430244:P5430244-1 phases=3 Bus1=41134693.1.2.3 Bus2=41134694.1.2.3 switch=y r1=0.001 x1=0.001 r0=0.001 x0=0.001 Length=0.001 units=km
New Line.4156330E:PS1660 phases=2 Bus1=243740646.1.2 Bus2=243740647.1.2 switch=y r1=0.001 x1=0.001 r0=0.001 x0=0.001 Length=0.001 units=km
New Line.4177055E:PS0873 phases=3 Bus1=41178770.1.2.3 Bus2=41178771.1.2.3 switch=y r1=0.001 x1=0.001 r0=0.001 x0=0.001 Length=0.001 units=km
New Line.665883E:665883E phases=2 Bus1=95690270.2.3 Bus2=95690271.2.3 switch=y r1=0.001 x1=0.001 r0=0.001 x0=0.001 Length=0.001 units=km
New Line.5520055:P5520055-1 phases=2 Bus1=94889931.1.2 Bus2=94889932.1.2 switch=y r1=0.001 x1=0.001 r0=0.001 x0=0.001 Length=0.001 units=km
New Line.5573572:P5573572-1 phases=3 Bus1=196549759.1.2.3 Bus2=196549760.1.2.3 switch=y r1=0.001 x1=0.001 r0=0.001 x0=0.001 Length=0.001 units=km
New Line.2363388E:2363388E-1 phases=3 Bus1=28080768.1.2.3 Bus2=28080759.1.2.3 switch=y r1=0.001 x1=0.001 r0=0.001 x0=0.001 Length=0.001 units=km
New Line.5718717:P5718717-1 phases=3 Bus1=240998460.1.2.3 Bus2=240998451.1.2.3 switch=y r1=0.001 x1=0.001 r0=0.001 x0=0.001 Length=0.001 units=km
New Line.5578501:P5578501-1 phases=2 Bus1=265434492.2.3 Bus2=265434493.2.3 switch=y r1=0.001 x1=0.001 r0=0.001 x0=0.001 Length=0.001 units=km
New Line.5520055:P5520055-2 phases=2 Bus1=94889932.1.2 Bus2=94889940.1.2 switch=y r1=0.001 x1=0.001 r0=0.001 x0=0.001 Length=0.001 units=km
New Line.PME1622-4$PME1622-1 phases=3 Bus1=240998554.1.2.3 Bus2=240998555.1.2.3 switch=y r1=0.001 x1=0.001 r0=0.001 x0=0.001 Length=0.001 units=km
New Line.5386681:P5386681-2 phases=2 Bus1=28119636.2.3 Bus2=28119628.2.3 switch=y r1=0.001 x1=0.001 r0=0.001 x0=0.001 Length=0.001 units=km
New Line.5431757:P5431757-2 phases=3 Bus1=28130808.1.2.3 Bus2=28130800.1.2.3 switch=y r1=0.001 x1=0.001 r0=0.001 x0=0.001 Length=0.001 units=km
New Line.5417040:P5417040-A phases=2 Bus1=241460245.1.2 Bus2=241460237.1.2 switch=y r1=0.001 x1=0.001 r0=0.001 x0=0.001 Length=0.001 units=km
New Line.5344560:P5344560-1 phases=2 Bus1=28079011.1.2 Bus2=28079012.1.2 switch=y r1=0.001 x1=0.001 r0=0.001 x0=0.001 Length=0.001 units=km
New Line.5344581:GS2788-1 phases=3 Bus1=144943999.1.2.3 Bus2=144943973.1.2.3 switch=y r1=0.001 x1=0.001 r0=0.001 x0=0.001 Length=0.001 units=km
New Line.5344581:GS2788-4 phases=3 Bus1=144943986.1.2.3 Bus2=144944023.1.2.3 switch=y r1=0.001 x1=0.001 r0=0.001 x0=0.001 Length=0.001 units=km
New Line.5344581:GS2788-5 phases=3 Bus1=144943992.1.2.3 Bus2=144944031.1.2.3 switch=y r1=0.001 x1=0.001 r0=0.001 x0=0.001 Length=0.001 units=km
New Line.5332077:P5332077-1 phases=3 Bus1=41023048.1.2.3 Bus2=41023049.1.2.3 switch=y r1=0.001 x1=0.001 r0=0.001 x0=0.001 Length=0.001 units=km
New Line.5520152:P5520152-1 phases=3 Bus1=135501762.1.2.3 Bus2=135501763.1.2.3 switch=y r1=0.001 x1=0.001 r0=0.001 x0=0.001 Length=0.001 units=km
New Line.5199621:P5199621-1 phases=3 Bus1=41023183.1.2.3 Bus2=41023184.1.2.3 switch=y r1=0.001 x1=0.001 r0=0.001 x0=0.001 Length=0.001 units=km
New Line.5415739:P5415739-1 phases=3 Bus1=41023231.1.2.3 Bus2=41023232.1.2.3 switch=y r1=0.001 x1=0.001 r0=0.001 x0=0.001 Length=0.001 units=km
...